<?xml version="1.0" encoding="UTF-8"?>

<!-- generated on 04/11/20 00:52:21 by Eclipse SUMO netedit Version 1.5.0
<configuration xmlns:xsi="http://www.w3.org/2001/XMLSchema-instance" xsi:noNamespaceSchemaLocation="http://sumo.dlr.de/xsd/netconvertConfiguration.xsd">

    <input>
        <sumo-net-file value="C:\Users\Anirudh\Documents\PyCharm\tempDir\txmap\txmap.net.xml"/>
    </input>

    <output>
        <output-file value="C:\Users\Anirudh\Documents\PyCharm\tempDir\txmap\txmap.net.xml"/>
    </output>

    <processing>
        <geometry.min-radius.fix.railways value="false"/>
        <geometry.max-grade.fix value="false"/>
        <offset.disable-normalization value="true"/>
        <lefthand value="false"/>
    </processing>

    <junctions>
        <no-turnarounds value="true"/>
        <junctions.corner-detail value="5"/>
        <junctions.limit-turn-speed value="5.5"/>
        <rectangular-lane-cut value="false"/>
    </junctions>

    <pedestrian>
        <walkingareas value="false"/>
    </pedestrian>

    <report>
        <aggregate-warnings value="5"/>
    </report>

</configuration>
-->

<net version="1.3" junctionCornerDetail="5" limitTurnSpeed="5.50" xmlns:xsi="http://www.w3.org/2001/XMLSchema-instance" xsi:noNamespaceSchemaLocation="http://sumo.dlr.de/xsd/net_file.xsd">

    <location netOffset="-566542.46,-3270461.61" convBoundary="185.44,440.31,5653.29,5962.51" origBoundary="-98.312797,29.561795,-98.212002,29.639647" projParameter="+proj=utm +zone=14 +ellps=WGS84 +datum=WGS84 +units=m +no_defs"/>

    <type id="highway.bridleway" priority="1" numLanes="1" speed="2.78" allow="pedestrian" oneway="1" width="2.00"/>
    <type id="highway.bus_guideway" priority="1" numLanes="1" speed="27.78" allow="bus" oneway="1"/>
    <type id="highway.cycleway" priority="1" numLanes="1" speed="8.33" allow="bicycle" oneway="0" width="1.00"/>
    <type id="highway.footway" priority="1" numLanes="1" speed="2.78" allow="pedestrian" oneway="1" width="2.00"/>
    <type id="highway.ford" priority="1" numLanes="1" speed="2.78" allow="army" oneway="0"/>
    <type id="highway.living_street" priority="2" numLanes="1" speed="2.78" disallow="tram rail_urban rail rail_electric rail_fast ship" oneway="0"/>
    <type id="highway.motorway" priority="14" numLanes="2" speed="39.44" allow="private emergency authority army vip passenger hov taxi bus coach delivery truck trailer motorcycle evehicle custom1 custom2" oneway="1"/>
    <type id="highway.motorway_link" priority="9" numLanes="1" speed="22.22" allow="private emergency authority army vip passenger hov taxi bus coach delivery truck trailer motorcycle evehicle custom1 custom2" oneway="1"/>
    <type id="highway.path" priority="1" numLanes="1" speed="2.78" allow="pedestrian bicycle" oneway="1" width="2.00"/>
    <type id="highway.pedestrian" priority="1" numLanes="1" speed="2.78" allow="pedestrian" oneway="1" width="2.00"/>
    <type id="highway.primary" priority="12" numLanes="2" speed="27.78" disallow="tram rail_urban rail rail_electric rail_fast ship" oneway="0"/>
    <type id="highway.primary_link" priority="7" numLanes="1" speed="22.22" disallow="tram rail_urban rail rail_electric rail_fast ship" oneway="0"/>
    <type id="highway.raceway" priority="15" numLanes="2" speed="83.33" allow="vip" oneway="0"/>
    <type id="highway.residential" priority="3" numLanes="1" speed="13.89" disallow="tram rail_urban rail rail_electric rail_fast ship" oneway="0"/>
    <type id="highway.secondary" priority="11" numLanes="1" speed="27.78" disallow="tram rail_urban rail rail_electric rail_fast ship" oneway="0"/>
    <type id="highway.secondary_link" priority="6" numLanes="1" speed="22.22" disallow="tram rail_urban rail rail_electric rail_fast ship" oneway="0"/>
    <type id="highway.service" priority="1" numLanes="1" speed="5.56" allow="pedestrian delivery bicycle" oneway="0"/>
    <type id="highway.stairs" priority="1" numLanes="1" speed="1.39" allow="pedestrian" oneway="1" width="2.00"/>
    <type id="highway.step" priority="1" numLanes="1" speed="1.39" allow="pedestrian" oneway="1" width="2.00"/>
    <type id="highway.steps" priority="1" numLanes="1" speed="1.39" allow="pedestrian" oneway="1" width="2.00"/>
    <type id="highway.tertiary" priority="10" numLanes="1" speed="22.22" disallow="tram rail_urban rail rail_electric rail_fast ship" oneway="0"/>
    <type id="highway.tertiary_link" priority="5" numLanes="1" speed="22.22" disallow="tram rail_urban rail rail_electric rail_fast ship" oneway="0"/>
    <type id="highway.track" priority="1" numLanes="1" speed="5.56" disallow="tram rail_urban rail rail_electric rail_fast ship" oneway="0"/>
    <type id="highway.trunk" priority="13" numLanes="2" speed="27.78" disallow="pedestrian bicycle tram rail_urban rail rail_electric rail_fast ship" oneway="0"/>
    <type id="highway.trunk_link" priority="8" numLanes="1" speed="22.22" disallow="pedestrian bicycle tram rail_urban rail rail_electric rail_fast ship" oneway="0"/>
    <type id="highway.unclassified" priority="4" numLanes="1" speed="13.89" disallow="tram rail_urban rail rail_electric rail_fast ship" oneway="0"/>
    <type id="highway.unsurfaced" priority="1" numLanes="1" speed="8.33" disallow="tram rail_urban rail rail_electric rail_fast ship" oneway="0"/>
    <type id="railway.highspeed" priority="21" numLanes="1" speed="69.44" allow="rail_fast" oneway="1"/>
    <type id="railway.light_rail" priority="19" numLanes="1" speed="27.78" allow="rail_urban" oneway="1"/>
    <type id="railway.preserved" priority="16" numLanes="1" speed="27.78" allow="rail" oneway="1"/>
    <type id="railway.rail" priority="20" numLanes="1" speed="44.44" allow="rail" oneway="1"/>
    <type id="railway.subway" priority="18" numLanes="1" speed="27.78" allow="rail_urban" oneway="1"/>
    <type id="railway.tram" priority="17" numLanes="1" speed="13.89" allow="tram" oneway="1"/>

    <edge id=":150129918_0" function="internal">
        <lane id=":150129918_0_0" index="0" disallow="tram rail_urban rail rail_electric rail_fast ship" speed="3.65" length="4.67" shape="1137.12,4963.65 1135.82,4964.27 1134.92,4964.21 1134.44,4963.45 1134.36,4962.01"/>
    </edge>
    <edge id=":150141982_0" function="internal">
        <lane id=":150141982_0_0" index="0" disallow="tram rail_urban rail rail_electric rail_fast ship" speed="6.62" length="8.61" shape="2553.95,4851.73 2552.69,4849.80 2551.09,4848.66 2549.13,4848.31 2546.83,4848.75"/>
    </edge>
    <edge id=":150141982_1" function="internal">
        <lane id=":150141982_1_0" index="0" disallow="tram rail_urban rail rail_electric rail_fast ship" speed="13.89" length="13.49" shape="2553.95,4851.73 2552.53,4848.51 2551.37,4845.50 2550.37,4842.43 2549.44,4839.04"/>
    </edge>
    <edge id=":150141982_2" function="internal">
        <lane id=":150141982_2_0" index="0" disallow="tram rail_urban rail rail_electric rail_fast ship" speed="3.65" length="2.34" shape="2553.95,4851.73 2554.17,4850.30 2554.73,4849.60"/>
    </edge>
    <edge id=":150141982_9" function="internal">
        <lane id=":150141982_9_0" index="0" disallow="tram rail_urban rail rail_electric rail_fast ship" speed="3.65" length="2.34" shape="2554.73,4849.60 2555.62,4849.63 2556.85,4850.38"/>
    </edge>
    <edge id=":150141982_3" function="internal">
        <lane id=":150141982_3_0" index="0" disallow="tram rail_urban rail rail_electric rail_fast ship" speed="13.89" length="12.89" shape="2552.55,4838.25 2553.44,4841.55 2554.37,4844.43 2555.46,4847.25 2556.85,4850.38"/>
    </edge>
    <edge id=":150141982_4" function="internal">
        <lane id=":150141982_4_0" index="0" disallow="tram rail_urban rail rail_electric rail_fast ship" speed="8.02" length="5.48" shape="2552.55,4838.25 2552.94,4841.87 2552.44,4843.64"/>
    </edge>
    <edge id=":150141982_5" function="internal">
        <lane id=":150141982_5_0" index="0" disallow="tram rail_urban rail rail_electric rail_fast ship" speed="3.65" length="2.34" shape="2552.55,4838.25 2552.06,4839.61 2551.39,4840.19"/>
    </edge>
    <edge id=":150141982_10" function="internal">
        <lane id=":150141982_10_0" index="0" disallow="tram rail_urban rail rail_electric rail_fast ship" speed="8.02" length="7.93" shape="2552.44,4843.64 2552.12,4844.82 2550.08,4847.11 2546.83,4848.75"/>
    </edge>
    <edge id=":150141982_11" function="internal">
        <lane id=":150141982_11_0" index="0" disallow="tram rail_urban rail rail_electric rail_fast ship" speed="3.65" length="2.34" shape="2551.39,4840.19 2550.51,4840.00 2549.44,4839.04"/>
    </edge>
    <edge id=":150141982_6" function="internal">
        <lane id=":150141982_6_0" index="0" disallow="tram rail_urban rail rail_electric rail_fast ship" speed="6.52" length="8.53" shape="2545.81,4845.72 2547.87,4844.68 2549.17,4843.22 2549.69,4841.34 2549.44,4839.04"/>
    </edge>
    <edge id=":150141982_7" function="internal">
        <lane id=":150141982_7_0" index="0" disallow="tram rail_urban rail rail_electric rail_fast ship" speed="8.11" length="13.36" shape="2545.81,4845.72 2549.37,4845.04 2552.40,4845.59 2554.90,4847.37 2556.85,4850.38"/>
    </edge>
    <edge id=":150141982_8" function="internal">
        <lane id=":150141982_8_0" index="0" disallow="tram rail_urban rail rail_electric rail_fast ship" speed="3.65" length="4.67" shape="2545.81,4845.72 2547.20,4846.09 2547.83,4846.72 2547.71,4847.61 2546.83,4848.75"/>
    </edge>
    <edge id=":150214758_0" function="internal">
        <lane id=":150214758_0_0" index="0" disallow="tram rail_urban rail rail_electric rail_fast ship" speed="3.65" length="4.67" shape="184.62,3601.29 184.00,3599.98 184.06,3599.09 184.82,3598.61 186.26,3598.53"/>
    </edge>
    <edge id=":150214783_0" function="internal">
        <lane id=":150214783_0_0" index="0" disallow="tram rail_urban rail rail_electric rail_fast ship" speed="6.08" length="7.74" shape="1507.62,4378.88 1506.29,4380.53 1504.75,4381.36 1503.00,4381.37 1501.04,4380.55"/>
    </edge>
    <edge id=":150214783_1" function="internal">
        <lane id=":150214783_1_0" index="0" disallow="tram rail_urban rail rail_electric rail_fast ship" speed="3.65" length="2.66" shape="1507.62,4378.88 1506.32,4379.50 1505.43,4379.43 1505.25,4379.16"/>
    </edge>
    <edge id=":150214783_4" function="internal">
        <lane id=":150214783_4_0" index="0" disallow="tram rail_urban rail rail_electric rail_fast ship" speed="3.65" length="2.01" shape="1505.25,4379.16 1504.94,4378.68 1504.87,4377.24"/>
    </edge>
    <edge id=":150214783_2" function="internal">
        <lane id=":150214783_2_0" index="0" disallow="tram rail_urban rail rail_electric rail_fast ship" speed="3.90" length="2.58" shape="1502.68,4377.80 1503.33,4378.07 1503.91,4378.07 1504.42,4377.79 1504.87,4377.24"/>
    </edge>
    <edge id=":150214783_3" function="internal">
        <lane id=":150214783_3_0" index="0" disallow="tram rail_urban rail rail_electric rail_fast ship" speed="3.65" length="2.08" shape="1502.68,4377.80 1503.30,4379.10 1503.25,4379.74"/>
    </edge>
    <edge id=":150214783_5" function="internal">
        <lane id=":150214783_5_0" index="0" disallow="tram rail_urban rail rail_electric rail_fast ship" speed="3.65" length="2.59" shape="1503.25,4379.74 1503.23,4379.99 1502.48,4380.48 1501.04,4380.55"/>
    </edge>
    <edge id=":150221861_0" function="internal">
        <lane id=":150221861_0_0" index="0" disallow="tram rail_urban rail rail_electric rail_fast ship" speed="3.91" length="2.42" shape="2375.58,4885.79 2374.92,4885.84 2374.42,4886.08 2374.08,4886.52 2373.89,4887.14"/>
    </edge>
    <edge id=":150221861_1" function="internal">
        <lane id=":150221861_1_0" index="0" disallow="tram rail_urban rail rail_electric rail_fast ship" speed="6.09" length="7.26" shape="2370.73,4886.65 2371.30,4884.77 2372.33,4883.46 2373.83,4882.74 2375.79,4882.60"/>
    </edge>
    <edge id=":151136407_0" function="internal">
        <lane id=":151136407_0_0" index="0" disallow="tram rail_urban rail rail_electric rail_fast ship" speed="9.96" length="1.75" shape="4485.55,5218.16 4485.31,5218.62 4485.12,5218.92 4484.88,5219.18 4484.49,5219.53"/>
    </edge>
    <edge id=":151136407_1" function="internal">
        <lane id=":151136407_1_0" index="0" disallow="tram rail_urban rail rail_electric rail_fast ship" speed="20.84" length="0.58" shape="4482.35,5217.16 4482.48,5217.04 4482.56,5216.95 4482.62,5216.85 4482.70,5216.70"/>
    </edge>
    <edge id=":151146305_0" function="internal">
        <lane id=":151146305_0_0" index="0" disallow="tram rail_urban rail rail_electric rail_fast ship" speed="27.78" length="13.45" shape="3862.85,3572.89 3861.14,3575.95 3859.70,3578.84 3858.46,3581.80 3857.34,3585.12"/>
    </edge>
    <edge id=":151146305_1" function="internal">
        <lane id=":151146305_1_0" index="0" disallow="tram rail_urban rail rail_electric rail_fast ship" speed="7.78" length="5.64" shape="3862.85,3572.89 3860.30,3576.12 3858.94,3576.81"/>
    </edge>
    <edge id=":151146305_6" function="internal">
        <lane id=":151146305_6_0" index="0" disallow="tram rail_urban rail rail_electric rail_fast ship" speed="7.78" length="9.08" shape="3858.94,3576.81 3857.41,3577.59 3854.17,3577.33 3850.59,3575.31"/>
    </edge>
    <edge id=":151146305_2" function="internal">
        <lane id=":151146305_2_0" index="0" disallow="tram rail_urban rail rail_electric rail_fast ship" speed="6.24" length="9.05" shape="3852.54,3572.77 3854.75,3574.01 3856.73,3574.18 3858.51,3573.27 3860.08,3571.28"/>
    </edge>
    <edge id=":151146305_3" function="internal">
        <lane id=":151146305_3_0" index="0" disallow="tram rail_urban rail rail_electric rail_fast ship" speed="9.30" length="14.17" shape="3852.54,3572.77 3855.45,3575.55 3857.21,3578.53 3857.84,3581.72 3857.34,3585.12"/>
    </edge>
    <edge id=":151146305_4" function="internal">
        <lane id=":151146305_4_0" index="0" disallow="tram rail_urban rail rail_electric rail_fast ship" speed="7.99" length="10.27" shape="3854.28,3584.19 3854.61,3581.80 3854.10,3579.52 3852.77,3577.36 3850.59,3575.31"/>
    </edge>
    <edge id=":151146305_5" function="internal">
        <lane id=":151146305_5_0" index="0" disallow="tram rail_urban rail rail_electric rail_fast ship" speed="27.78" length="14.18" shape="3854.28,3584.19 3855.45,3580.76 3856.79,3577.57 3858.32,3574.45 3860.08,3571.28"/>
    </edge>
    <edge id=":151146308_0" function="internal">
        <lane id=":151146308_0_0" index="0" disallow="tram rail_urban rail rail_electric rail_fast ship" speed="6.64" length="9.20" shape="3957.67,3420.47 3955.27,3419.58 3953.16,3419.63 3951.34,3420.62 3949.81,3422.55"/>
    </edge>
    <edge id=":151146308_1" function="internal">
        <lane id=":151146308_1_0" index="0" disallow="tram rail_urban rail rail_electric rail_fast ship" speed="7.94" length="14.32" shape="3957.67,3420.47 3954.49,3418.14 3952.87,3415.36 3952.79,3412.14 3954.26,3408.48"/>
    </edge>
    <edge id=":151146308_2" function="internal">
        <lane id=":151146308_2_0" index="0" disallow="tram rail_urban rail rail_electric rail_fast ship" speed="6.44" length="9.03" shape="3957.03,3410.09 3956.10,3412.40 3956.15,3414.43 3957.18,3416.18 3959.18,3417.65"/>
    </edge>
    <edge id=":151146308_3" function="internal">
        <lane id=":151146308_3_0" index="0" disallow="tram rail_urban rail rail_electric rail_fast ship" speed="27.78" length="14.41" shape="3957.03,3410.09 3949.81,3422.55"/>
    </edge>
    <edge id=":151146308_4" function="internal">
        <lane id=":151146308_4_0" index="0" disallow="tram rail_urban rail rail_electric rail_fast ship" speed="27.78" length="14.41" shape="3947.04,3420.95 3954.26,3408.48"/>
    </edge>
    <edge id=":151146308_5" function="internal">
        <lane id=":151146308_5_0" index="0" disallow="tram rail_urban rail rail_electric rail_fast ship" speed="8.11" length="5.87" shape="3947.04,3420.95 3949.42,3417.94 3951.20,3416.96"/>
    </edge>
    <edge id=":151146308_6" function="internal">
        <lane id=":151146308_6_0" index="0" disallow="tram rail_urban rail rail_electric rail_fast ship" speed="8.11" length="8.37" shape="3951.20,3416.96 3952.24,3416.39 3955.49,3416.29 3959.18,3417.65"/>
    </edge>
    <edge id=":151147197_0" function="internal">
        <lane id=":151147197_0_0" index="0" disallow="tram rail_urban rail rail_electric rail_fast ship" speed="3.65" length="4.67" shape="5654.15,2943.02 5654.73,2944.34 5654.64,2945.23 5653.87,2945.69 5652.43,2945.72"/>
    </edge>
    <edge id=":151147250_0" function="internal">
        <lane id=":151147250_0_0" index="0" disallow="tram rail_urban rail rail_electric rail_fast ship" speed="22.22" length="14.79" shape="4875.20,2291.48 4873.23,2288.32 4871.17,2285.27 4869.00,2282.31 4866.67,2279.41"/>
    </edge>
    <edge id=":151147250_1" function="internal">
        <lane id=":151147250_1_0" index="0" disallow="tram rail_urban rail rail_electric rail_fast ship" speed="22.22" length="15.29" shape="4869.12,2277.35 4871.49,2280.31 4873.77,2283.41 4875.92,2286.61 4877.93,2289.82"/>
    </edge>
    <edge id=":151147250_2" function="internal">
        <lane id=":151147250_2_0" index="0" disallow="tram rail_urban rail rail_electric rail_fast ship" speed="8.56" length="5.98" shape="4869.12,2277.35 4871.04,2280.55 4871.33,2282.78"/>
    </edge>
    <edge id=":151147250_3" function="internal">
        <lane id=":151147250_3_0" index="0" disallow="tram rail_urban rail rail_electric rail_fast ship" speed="3.65" length="2.34" shape="4869.12,2277.35 4869.28,2278.78 4868.93,2279.60"/>
    </edge>
    <edge id=":151147250_5" function="internal">
        <lane id=":151147250_5_0" index="0" disallow="tram rail_urban rail rail_electric rail_fast ship" speed="8.56" length="8.94" shape="4871.33,2282.78 4871.47,2283.85 4870.41,2287.23 4867.85,2290.71"/>
    </edge>
    <edge id=":151147250_6" function="internal">
        <lane id=":151147250_6_0" index="0" disallow="tram rail_urban rail rail_electric rail_fast ship" speed="3.65" length="2.34" shape="4868.93,2279.60 4868.06,2279.81 4866.67,2279.41"/>
    </edge>
    <edge id=":151147250_4" function="internal">
        <lane id=":151147250_4_0" index="0" disallow="tram rail_urban rail rail_electric rail_fast ship" speed="7.17" length="10.19" shape="4865.52,2288.52 4867.34,2286.09 4868.13,2283.76 4867.91,2281.53 4866.67,2279.41"/>
    </edge>
    <edge id=":151147259_0" function="internal">
        <lane id=":151147259_0_0" index="0" disallow="tram rail_urban rail rail_electric rail_fast ship" speed="6.44" length="9.03" shape="4696.71,2161.89 4694.44,2160.88 4692.41,2160.85 4690.62,2161.82 4689.08,2163.76"/>
    </edge>
    <edge id=":151147259_1" function="internal">
        <lane id=":151147259_1_0" index="0" disallow="tram rail_urban rail rail_electric rail_fast ship" speed="22.22" length="14.48" shape="4696.71,2161.89 4684.40,2154.27"/>
    </edge>
    <edge id=":151147259_2" function="internal">
        <lane id=":151147259_2_0" index="0" disallow="tram rail_urban rail rail_electric rail_fast ship" speed="8.07" length="14.30" shape="4696.71,2161.89 4693.71,2159.35 4692.21,2156.47 4692.23,2153.24 4693.75,2149.66"/>
    </edge>
    <edge id=":151147259_3" function="internal">
        <lane id=":151147259_3_0" index="0" disallow="tram rail_urban rail rail_electric rail_fast ship" speed="6.59" length="9.19" shape="4696.49,2151.33 4695.51,2153.62 4695.51,2155.69 4696.48,2157.55 4698.42,2159.18"/>
    </edge>
    <edge id=":151147259_4" function="internal">
        <lane id=":151147259_4_0" index="0" disallow="tram rail_urban rail rail_electric rail_fast ship" speed="27.78" length="14.48" shape="4696.49,2151.33 4689.08,2163.76"/>
    </edge>
    <edge id=":151147259_5" function="internal">
        <lane id=":151147259_5_0" index="0" disallow="tram rail_urban rail rail_electric rail_fast ship" speed="8.00" length="14.20" shape="4696.49,2151.33 4694.02,2154.33 4691.18,2155.82 4687.97,2155.80 4684.40,2154.27"/>
    </edge>
    <edge id=":151147259_6" function="internal">
        <lane id=":151147259_6_0" index="0" disallow="tram rail_urban rail rail_electric rail_fast ship" speed="6.51" length="9.03" shape="4686.06,2151.54 4688.34,2152.51 4690.38,2152.53 4692.18,2151.58 4693.75,2149.66"/>
    </edge>
    <edge id=":151147259_7" function="internal">
        <lane id=":151147259_7_0" index="0" disallow="tram rail_urban rail rail_electric rail_fast ship" speed="22.22" length="14.53" shape="4686.06,2151.54 4698.42,2159.18"/>
    </edge>
    <edge id=":151147259_8" function="internal">
        <lane id=":151147259_8_0" index="0" disallow="tram rail_urban rail rail_electric rail_fast ship" speed="8.08" length="14.30" shape="4686.06,2151.54 4689.06,2154.01 4690.56,2156.88 4690.57,2160.13 4689.08,2163.76"/>
    </edge>
    <edge id=":151147259_9" function="internal">
        <lane id=":151147259_9_0" index="0" disallow="tram rail_urban rail rail_electric rail_fast ship" speed="6.61" length="9.21" shape="4686.31,2162.15 4687.28,2159.80 4687.28,2157.70 4686.32,2155.86 4684.40,2154.27"/>
    </edge>
    <edge id=":151147259_10" function="internal">
        <lane id=":151147259_10_0" index="0" disallow="tram rail_urban rail rail_electric rail_fast ship" speed="27.78" length="14.53" shape="4686.31,2162.15 4693.75,2149.66"/>
    </edge>
    <edge id=":151147259_11" function="internal">
        <lane id=":151147259_11_0" index="0" disallow="tram rail_urban rail rail_electric rail_fast ship" speed="7.95" length="14.31" shape="4686.31,2162.15 4688.76,2159.06 4691.60,2157.54 4694.82,2157.58 4698.42,2159.18"/>
    </edge>
    <edge id=":151147296_0" function="internal">
        <lane id=":151147296_0_0" index="0" disallow="tram rail_urban rail rail_electric rail_fast ship" speed="6.11" length="9.06" shape="3894.87,1578.12 3892.52,1577.12 3890.55,1577.21 3888.97,1578.39 3887.78,1580.65"/>
    </edge>
    <edge id=":151147296_1" function="internal">
        <lane id=":151147296_1_0" index="0" disallow="tram rail_urban rail rail_electric rail_fast ship" speed="18.06" length="14.71" shape="3894.87,1578.12 3891.67,1576.26 3888.45,1574.54 3885.16,1572.96 3881.76,1571.51"/>
    </edge>
    <edge id=":151147296_2" function="internal">
        <lane id=":151147296_2_0" index="0" disallow="tram rail_urban rail rail_electric rail_fast ship" speed="18.06" length="15.23" shape="3882.95,1568.54 3886.43,1570.02 3889.87,1571.68 3893.25,1573.48 3896.53,1575.38"/>
    </edge>
    <edge id=":151147296_3" function="internal">
        <lane id=":151147296_3_0" index="0" disallow="tram rail_urban rail rail_electric rail_fast ship" speed="8.26" length="6.10" shape="3882.95,1568.54 3886.25,1570.49 3887.56,1572.34"/>
    </edge>
    <edge id=":151147296_6" function="internal">
        <lane id=":151147296_6_0" index="0" disallow="tram rail_urban rail rail_electric rail_fast ship" speed="8.26" length="8.64" shape="3887.56,1572.34 3888.15,1573.17 3888.66,1576.55 3887.78,1580.65"/>
    </edge>
    <edge id=":151147296_4" function="internal">
        <lane id=":151147296_4_0" index="0" disallow="tram rail_urban rail rail_electric rail_fast ship" speed="6.82" length="9.73" shape="3884.76,1579.58 3885.38,1576.82 3885.08,1574.55 3883.87,1572.78 3881.76,1571.51"/>
    </edge>
    <edge id=":151147296_5" function="internal">
        <lane id=":151147296_5_0" index="0" disallow="tram rail_urban rail rail_electric rail_fast ship" speed="7.69" length="15.02" shape="3884.76,1579.58 3886.74,1575.83 3889.36,1573.87 3892.62,1573.72 3896.53,1575.38"/>
    </edge>
    <edge id=":151147577_0" function="internal">
        <lane id=":151147577_0_0" index="0" disallow="tram rail_urban rail rail_electric rail_fast ship" speed="6.08" length="7.72" shape="3895.23,1897.47 3896.87,1898.80 3897.69,1900.34 3897.70,1902.08 3896.89,1904.04"/>
    </edge>
    <edge id=":151147577_1" function="internal">
        <lane id=":151147577_1_0" index="0" disallow="tram rail_urban rail rail_electric rail_fast ship" speed="3.65" length="2.66" shape="3895.23,1897.47 3895.85,1898.77 3895.78,1899.66 3895.51,1899.84"/>
    </edge>
    <edge id=":151147577_4" function="internal">
        <lane id=":151147577_4_0" index="0" disallow="tram rail_urban rail rail_electric rail_fast ship" speed="3.65" length="2.01" shape="3895.51,1899.84 3895.03,1900.14 3893.59,1900.21"/>
    </edge>
    <edge id=":151147577_2" function="internal">
        <lane id=":151147577_2_0" index="0" disallow="tram rail_urban rail rail_electric rail_fast ship" speed="3.90" length="2.57" shape="3894.14,1902.40 3894.41,1901.75 3894.41,1901.17 3894.13,1900.66 3893.59,1900.21"/>
    </edge>
    <edge id=":151147577_3" function="internal">
        <lane id=":151147577_3_0" index="0" disallow="tram rail_urban rail rail_electric rail_fast ship" speed="3.65" length="2.08" shape="3894.14,1902.40 3895.44,1901.78 3896.08,1901.82"/>
    </edge>
    <edge id=":151147577_5" function="internal">
        <lane id=":151147577_5_0" index="0" disallow="tram rail_urban rail rail_electric rail_fast ship" speed="3.65" length="2.59" shape="3896.08,1901.82 3896.33,1901.84 3896.81,1902.60 3896.89,1904.04"/>
    </edge>
    <edge id=":151147630_0" function="internal">
        <lane id=":151147630_0_0" index="0" disallow="tram rail_urban rail rail_electric rail_fast ship" speed="27.78" length="14.32" shape="4449.18,2573.15 4442.13,2585.62"/>
    </edge>
    <edge id=":151147630_1" function="internal">
        <lane id=":151147630_1_0" index="0" disallow="tram rail_urban rail rail_electric rail_fast ship" speed="7.97" length="5.84" shape="4449.18,2573.15 4446.76,2576.23 4445.07,2577.16"/>
    </edge>
    <edge id=":151147630_7" function="internal">
        <lane id=":151147630_7_0" index="0" disallow="tram rail_urban rail rail_electric rail_fast ship" speed="7.97" length="8.41" shape="4445.07,2577.16 4443.95,2577.78 4440.73,2577.80 4437.12,2576.29"/>
    </edge>
    <edge id=":151147630_2" function="internal">
        <lane id=":151147630_2_0" index="0" disallow="tram rail_urban rail rail_electric rail_fast ship" speed="6.47" length="9.03" shape="4438.77,2573.54 4441.06,2574.50 4443.09,2574.49 4444.87,2573.51 4446.40,2571.56"/>
    </edge>
    <edge id=":151147630_3" function="internal">
        <lane id=":151147630_3_0" index="0" disallow="tram rail_urban rail rail_electric rail_fast ship" speed="8.10" length="14.20" shape="4438.77,2573.54 4441.81,2575.99 4443.38,2578.82 4443.49,2582.03 4442.13,2585.62"/>
    </edge>
    <edge id=":151147630_4" function="internal">
        <lane id=":151147630_4_0" index="0" disallow="tram rail_urban rail rail_electric rail_fast ship" speed="3.65" length="4.67" shape="4438.77,2573.54 4439.39,2574.84 4439.32,2575.73 4438.56,2576.22 4437.12,2576.29"/>
    </edge>
    <edge id=":151147630_5" function="internal">
        <lane id=":151147630_5_0" index="0" disallow="tram rail_urban rail rail_electric rail_fast ship" speed="6.63" length="9.16" shape="4439.33,2584.07 4440.20,2581.76 4440.12,2579.70 4439.10,2577.87 4437.12,2576.29"/>
    </edge>
    <edge id=":151147630_6" function="internal">
        <lane id=":151147630_6_0" index="0" disallow="tram rail_urban rail rail_electric rail_fast ship" speed="27.78" length="14.38" shape="4439.33,2584.07 4446.40,2571.56"/>
    </edge>
    <edge id=":151148209_0" function="internal">
        <lane id=":151148209_0_0" index="0" disallow="tram rail_urban rail rail_electric rail_fast ship" speed="3.65" length="4.67" shape="854.93,1844.54 854.14,1843.34 854.09,1842.44 854.77,1841.86 856.19,1841.60"/>
    </edge>
    <edge id=":151149718_0" function="internal">
        <lane id=":151149718_0_0" index="0" disallow="tram rail_urban rail rail_electric rail_fast ship" speed="6.08" length="7.66" shape="3819.31,1855.65 3817.68,1854.33 3816.86,1852.81 3816.84,1851.07 3817.63,1849.13"/>
    </edge>
    <edge id=":151149718_1" function="internal">
        <lane id=":151149718_1_0" index="0" disallow="tram rail_urban rail rail_electric rail_fast ship" speed="3.65" length="2.66" shape="3819.31,1855.65 3818.69,1854.35 3818.76,1853.46 3819.04,1853.28"/>
    </edge>
    <edge id=":151149718_4" function="internal">
        <lane id=":151149718_4_0" index="0" disallow="tram rail_urban rail rail_electric rail_fast ship" speed="3.65" length="2.01" shape="3819.04,1853.28 3819.52,1852.98 3820.96,1852.91"/>
    </edge>
    <edge id=":151149718_2" function="internal">
        <lane id=":151149718_2_0" index="0" disallow="tram rail_urban rail rail_electric rail_fast ship" speed="3.91" length="2.55" shape="3820.39,1850.74 3820.13,1851.38 3820.14,1851.96 3820.41,1852.47 3820.96,1852.91"/>
    </edge>
    <edge id=":151149718_3" function="internal">
        <lane id=":151149718_3_0" index="0" disallow="tram rail_urban rail rail_electric rail_fast ship" speed="3.65" length="2.08" shape="3820.39,1850.74 3819.10,1851.37 3818.46,1851.33"/>
    </edge>
    <edge id=":151149718_5" function="internal">
        <lane id=":151149718_5_0" index="0" disallow="tram rail_urban rail rail_electric rail_fast ship" speed="3.65" length="2.59" shape="3818.46,1851.33 3818.21,1851.32 3817.72,1850.57 3817.63,1849.13"/>
    </edge>
    <edge id=":151156119_0" function="internal">
        <lane id=":151156119_0_0" index="0" disallow="tram rail_urban rail rail_electric rail_fast ship" speed="3.65" length="4.67" shape="2753.91,1720.44 2753.29,1719.14 2753.36,1718.25 2754.11,1717.77 2755.55,1717.70"/>
    </edge>
    <edge id=":151161349_0" function="internal">
        <lane id=":151161349_0_0" index="0" disallow="tram rail_urban rail rail_electric rail_fast ship" speed="20.84" length="0.24" shape="4951.09,4461.09 4950.97,4461.30"/>
    </edge>