<additional>
	<vTypeDistribution id="light_norm_heavy">
		<vType id="typeLight" length="2.2" width="0.9" height="1.5" minGap="1.0" sigma="0.6" accel="6.0" decel="10.0" maxSpeed="25.0" guiShape="motorcycle" probability="1.0"/>
		<vType id="typeNormal" length="4.3" width="1.8" height="1.5" minGap="1.2" sigma="0.5" accel="2.9" decel="7.5" maxSpeed="27.78" guiShape="passenger" probability="0.9"/>
		<vType id="typeHeavy1" length="7.1" width="2.4" height="2.4" minGap="1.5" sigma="0.5" accel="1.3" decel="4.0" maxSpeed="22.22" guiShape="truck" color="0.753,0.753,0.753" probability="0.3"/>
		<vType id="typeHeavy2" length="12.0" width="2.5" height="3.4" minGap="1.5" sigma="0.5" accel="1.2" decel="4.0" maxSpeed="19.44" guiShape="bus" color="0.678,1.0,0.184" probability="0.2"/>
    </vTypeDistribution>
</additional>
